processed_pdbs\1866\1866_ligand.pdb
 OpenBabel07182513593D

 72 76  0  0  1  0  0  0  0  0999 V2000
   -9.5740  -16.9970    7.3300 H   0  0  0  0  0  0  0  0  0  0  0  0
   -2.9540  -13.5410   11.3980 H   0  0  0  0  0  0  0  0  0  0  0  0
   -2.7490  -11.0640   11.4120 H   0  0  0  0  0  0  0  0  0  0  0  0
   -9.3920  -16.2900   14.3840 H   0  0  0  0  0  0  0  0  0  0  0  0
   -8.1010  -15.3560    8.7270 H   0  0  0  0  0  0  0  0  0  0  0  0
   -7.9110  -17.5880    9.2150 H   0  0  0  0  0  0  0  0  0  0  0  0
   -7.3610  -13.4920    8.7630 H   0  0  0  0  0  0  0  0  0  0  0  0
   -7.9560  -17.4260   13.4340 H   0  0  0  0  0  0  0  0  0  0  0  0
  -12.6110  -12.0760   13.4790 H   0  0  0  0  0  0  0  0  0  0  0  0
   -8.1930  -12.5500    9.9230 H   0  0  0  0  0  0  0  0  0  0  0  0
  -10.3290  -12.8350   14.0830 H   0  0  0  0  0  0  0  0  0  0  0  0
  -13.5980  -16.0790   12.2040 H   0  0  0  0  0  0  0  0  0  0  0  0
   -5.0420  -14.0620   13.4390 H   0  0  0  0  0  0  0  0  0  0  0  0
  -11.3150  -16.8320   12.7790 H   0  0  0  0  0  0  0  0  0  0  0  0
   -6.7060  -10.7160    9.7750 H   0  0  0  0  0  0  0  0  0  0  0  0
   -4.6320   -9.6590   10.5920 H   0  0  0  0  0  0  0  0  0  0  0  0
   -8.8060  -14.6750   14.5440 H   0  0  0  0  0  0  0  0  0  0  0  0
   -7.1310  -18.4510   11.4050 H   0  0  0  0  0  0  0  0  0  0  0  0
   -5.5810  -16.0210   12.2170 H   0  0  0  0  0  0  0  0  0  0  0  0
   -5.6050  -17.5350   13.0590 H   0  0  0  0  0  0  0  0  0  0  0  0
   -5.0410  -14.6000   10.6560 H   0  0  0  0  0  0  0  0  0  0  0  0
  -11.8050  -14.3440    4.7800 H   0  0  0  0  0  0  0  0  0  0  0  0
   -6.3400  -16.2950   17.6860 H   0  0  0  0  0  0  0  0  0  0  0  0
   -4.7090  -12.8990   15.5990 H   0  0  0  0  0  0  0  0  0  0  0  0
   -6.6710  -17.4700   15.5250 H   0  0  0  0  0  0  0  0  0  0  0  0
   -5.3600  -14.0090   17.7280 H   0  0  0  0  0  0  0  0  0  0  0  0
  -10.3890  -16.3630    5.0790 H   0  0  0  0  0  0  0  0  0  0  0  0
  -10.2980  -16.6580    9.9190 H   0  0  0  0  0  0  0  0  0  0  0  0
  -10.3930  -15.0100   10.4470 H   0  0  0  0  0  0  0  0  0  0  0  0
  -14.2550  -13.6970   12.5340 H   0  0  0  0  0  0  0  0  0  0  0  0
   -9.1220  -19.0690   11.7470 H   0  0  0  0  0  0  0  0  0  0  0  0
  -11.5120  -13.5140    8.9980 H   0  0  0  0  0  0  0  0  0  0  0  0
  -12.3690  -12.9240    6.7470 H   0  0  0  0  0  0  0  0  0  0  0  0
   -6.0560  -15.7660   10.1960 H   0  0  0  0  0  0  0  0  0  0  0  0
   -7.5960  -16.7710   12.6400 C   0  0  1  0  0  0  0  0  0  0  0  0
   -8.3950  -15.5240   12.6430 N   0  0  0  0  0  0  0  0  0  0  0  0
   -7.7970  -17.5960   11.3590 C   0  0  2  0  0  0  0  0  0  0  0  0
   -8.0120  -14.4040   11.9820 C   0  0  0  0  0  0  0  0  0  0  0  0
   -7.6200  -16.8820    9.9930 C   0  0  1  0  0  0  0  0  0  0  0  0
   -8.3850  -15.5710    9.7570 C   0  0  2  0  0  0  0  0  0  0  0  0
   -7.8850  -14.4790   10.6230 N   0  0  0  0  0  0  0  0  0  0  0  0
   -9.2630  -15.3610   13.8290 C   0  0  0  0  0  0  0  0  0  0  0  0
  -10.6620  -14.8870   13.4770 C   0  0  0  0  0  0  0  0  0  0  0  0
   -7.4220  -13.3120    9.8350 C   0  0  0  0  0  0  0  0  0  0  0  0
   -6.0620  -12.7330   10.2050 C   0  0  0  0  0  0  0  0  0  0  0  0
  -11.5920  -15.7990   12.9380 C   0  0  0  0  0  0  0  0  0  0  0  0
  -12.8900  -15.3680   12.6060 C   0  0  0  0  0  0  0  0  0  0  0  0
  -11.0350  -13.5410   13.6740 C   0  0  0  0  0  0  0  0  0  0  0  0
  -13.2590  -14.0230   12.7970 C   0  0  0  0  0  0  0  0  0  0  0  0
  -12.3300  -13.1080   13.3310 C   0  0  0  0  0  0  0  0  0  0  0  0
   -3.6610  -11.5290   11.0680 C   0  0  0  0  0  0  0  0  0  0  0  0
   -4.7270  -10.7340   10.6040 C   0  0  0  0  0  0  0  0  0  0  0  0
   -5.9010  -11.3380   10.1360 C   0  0  0  0  0  0  0  0  0  0  0  0
   -3.7770  -12.9290   11.0590 C   0  0  0  0  0  0  0  0  0  0  0  0
   -4.9750  -13.5300   10.6310 C   0  0  0  0  0  0  0  0  0  0  0  0
   -6.1020  -16.5640   13.0010 C   0  0  0  0  0  0  0  0  0  0  0  0
   -5.8820  -15.8510   14.3260 C   0  0  0  0  0  0  0  0  0  0  0  0
   -5.3210  -14.5570   14.3560 C   0  0  0  0  0  0  0  0  0  0  0  0
   -6.2430  -16.4790   15.5360 C   0  0  0  0  0  0  0  0  0  0  0  0
   -5.1330  -13.8920   15.5820 C   0  0  0  0  0  0  0  0  0  0  0  0
   -6.0560  -15.8140   16.7630 C   0  0  0  0  0  0  0  0  0  0  0  0
   -5.5020  -14.5190   16.7860 C   0  0  0  0  0  0  0  0  0  0  0  0
   -9.9360  -15.6570    9.7000 C   0  0  0  0  0  0  0  0  0  0  0  0
  -10.4850  -15.3000    8.3270 C   0  0  0  0  0  0  0  0  0  0  0  0
  -10.6460  -15.7550    5.9310 C   0  0  0  0  0  0  0  0  0  0  0  0
  -11.4410  -14.6070    5.7620 C   0  0  0  0  0  0  0  0  0  0  0  0
  -10.1820  -16.1110    7.2110 C   0  0  0  0  0  0  0  0  0  0  0  0
  -11.7590  -13.8050    6.8750 C   0  0  0  0  0  0  0  0  0  0  0  0
  -11.2760  -14.1450    8.1540 C   0  0  0  0  0  0  0  0  0  0  0  0
   -9.0910  -18.1490   11.4150 O   0  0  0  0  0  0  0  0  0  0  0  0
   -6.2700  -16.5490    9.7180 O   0  0  0  0  0  0  0  0  0  0  0  0
   -7.8560  -13.3490   12.6040 O   0  0  0  0  0  0  0  0  0  0  0  0
  1 67  1  0  0  0  0
  2 54  1  0  0  0  0
  3 51  1  0  0  0  0
  4 42  1  0  0  0  0
  7 44  1  0  0  0  0
  9 50  1  0  0  0  0
 10 44  1  0  0  0  0
 11 48  1  0  0  0  0
 12 47  1  0  0  0  0
 13 58  1  0  0  0  0
 14 46  1  0  0  0  0
 15 53  1  0  0  0  0
 16 52  1  0  0  0  0
 17 42  1  0  0  0  0
 19 56  1  0  0  0  0
 20 56  1  0  0  0  0
 21 55  1  0  0  0  0
 22 66  1  0  0  0  0
 23 61  1  0  0  0  0
 24 60  1  0  0  0  0
 25 59  1  0  0  0  0
 26 62  1  0  0  0  0
 27 65  1  0  0  0  0
 28 63  1  0  0  0  0
 29 63  1  0  0  0  0
 30 49  1  0  0  0  0
 31 70  1  0  0  0  0
 32 69  1  0  0  0  0
 33 68  1  0  0  0  0
 34 71  1  0  0  0  0
 35  8  1  1  0  0  0
 35 36  1  0  0  0  0
 35 37  1  0  0  0  0
 35 56  1  0  0  0  0
 36 38  1  0  0  0  0
 36 42  1  0  0  0  0
 37 18  1  1  0  0  0
 37 39  1  0  0  0  0
 37 70  1  0  0  0  0
 38 41  1  0  0  0  0
 38 72  2  0  0  0  0
 39  6  1  6  0  0  0
 39 40  1  0  0  0  0
 39 71  1  0  0  0  0
 40  5  1  6  0  0  0
 40 41  1  0  0  0  0
 40 63  1  0  0  0  0
 41 44  1  0  0  0  0
 42 43  1  0  0  0  0
 43 46  2  0  0  0  0
 43 48  1  0  0  0  0
 44 45  1  0  0  0  0
 45 53  2  0  0  0  0
 45 55  1  0  0  0  0
 46 47  1  0  0  0  0
 47 49  2  0  0  0  0
 48 50  2  0  0  0  0
 49 50  1  0  0  0  0
 51 52  2  0  0  0  0
 51 54  1  0  0  0  0
 52 53  1  0  0  0  0
 54 55  2  0  0  0  0
 56 57  1  0  0  0  0
 57 58  2  0  0  0  0
 57 59  1  0  0  0  0
 58 60  1  0  0  0  0
 59 61  2  0  0  0  0
 60 62  2  0  0  0  0
 61 62  1  0  0  0  0
 63 64  1  0  0  0  0
 64 67  2  0  0  0  0
 64 69  1  0  0  0  0
 65 66  2  0  0  0  0
 65 67  1  0  0  0  0
 66 68  1  0  0  0  0
 68 69  2  0  0  0  0
M  END
$$$$
