processed_pdbs\1918\1918_ligand.pdb
 OpenBabel07182513593D

 80 84  0  0  1  0  0  0  0  0999 V2000
   -6.1900   19.1880   25.3220 H   0  0  0  0  0  0  0  0  0  0  0  0
   -2.6140   16.7870   25.0750 H   0  0  0  0  0  0  0  0  0  0  0  0
   -9.3710   18.2200   29.4150 H   0  0  0  0  0  0  0  0  0  0  0  0
  -14.5270   13.7670   31.1140 H   0  0  0  0  0  0  0  0  0  0  0  0
   -8.2670   17.9330   25.8480 H   0  0  0  0  0  0  0  0  0  0  0  0
  -10.5300   17.7540   26.6130 H   0  0  0  0  0  0  0  0  0  0  0  0
   -6.7830   15.7850   25.4220 H   0  0  0  0  0  0  0  0  0  0  0  0
   -8.9020   13.8200   30.1540 H   0  0  0  0  0  0  0  0  0  0  0  0
  -10.7220   16.3280   30.0060 H   0  0  0  0  0  0  0  0  0  0  0  0
   -4.1240   18.5270   24.1120 H   0  0  0  0  0  0  0  0  0  0  0  0
  -13.5670   15.6420   29.7970 H   0  0  0  0  0  0  0  0  0  0  0  0
  -10.9850   15.2560   27.2020 H   0  0  0  0  0  0  0  0  0  0  0  0
   -3.1810   15.7250   27.2510 H   0  0  0  0  0  0  0  0  0  0  0  0
  -12.1790   16.2930   27.9070 H   0  0  0  0  0  0  0  0  0  0  0  0
   -7.2550   19.2450   27.7050 H   0  0  0  0  0  0  0  0  0  0  0  0
  -13.4960   11.5090   31.0140 H   0  0  0  0  0  0  0  0  0  0  0  0
  -11.6420   15.5470   22.7550 H   0  0  0  0  0  0  0  0  0  0  0  0
  -11.4810   11.1180   29.5710 H   0  0  0  0  0  0  0  0  0  0  0  0
   -7.8610   14.4440   25.5130 H   0  0  0  0  0  0  0  0  0  0  0  0
   -7.5280   14.8850   30.3540 H   0  0  0  0  0  0  0  0  0  0  0  0
  -13.5770   15.3160   35.0220 H   0  0  0  0  0  0  0  0  0  0  0  0
  -10.4340   16.7150   20.9230 H   0  0  0  0  0  0  0  0  0  0  0  0
   -9.4100   19.9670   27.8880 H   0  0  0  0  0  0  0  0  0  0  0  0
  -11.1600   19.4120   29.2760 H   0  0  0  0  0  0  0  0  0  0  0  0
   -5.2370   16.3780   28.4610 H   0  0  0  0  0  0  0  0  0  0  0  0
  -10.7980   14.0030   31.6250 H   0  0  0  0  0  0  0  0  0  0  0  0
   -8.6170   17.8690   33.8610 H   0  0  0  0  0  0  0  0  0  0  0  0
  -10.7100   16.9390   34.7870 H   0  0  0  0  0  0  0  0  0  0  0  0
   -7.6230   16.9000   31.7900 H   0  0  0  0  0  0  0  0  0  0  0  0
  -10.5350   12.9870   28.2530 H   0  0  0  0  0  0  0  0  0  0  0  0
  -12.9900   15.0680   33.0460 H   0  0  0  0  0  0  0  0  0  0  0  0
   -6.8690   16.8420   23.3290 H   0  0  0  0  0  0  0  0  0  0  0  0
  -10.4550   15.0000   24.8710 H   0  0  0  0  0  0  0  0  0  0  0  0
  -12.1500   13.7250   33.8070 H   0  0  0  0  0  0  0  0  0  0  0  0
   -7.6160   17.2830   18.9250 H   0  0  0  0  0  0  0  0  0  0  0  0
   -8.3590   18.4860   20.6250 H   0  0  0  0  0  0  0  0  0  0  0  0
   -6.8260   17.7960   21.1150 H   0  0  0  0  0  0  0  0  0  0  0  0
   -7.1610   17.8060   28.6870 H   0  0  0  0  0  0  0  0  0  0  0  0
   -9.1510   15.3980   31.5640 C   0  0  0  0  0  0  0  0  0  0  0  0
  -10.2940   16.3220   29.0070 C   0  0  1  0  0  0  0  0  0  0  0  0
   -8.9900   15.6050   29.0130 N   0  0  0  0  0  0  0  0  0  0  0  0
  -10.1370   17.8320   28.7430 C   0  0  1  0  0  0  0  0  0  0  0  0
   -8.2800   15.2700   27.8990 C   0  0  0  0  0  0  0  0  0  0  0  0
   -9.7630   18.1500   27.2870 C   0  0  2  0  0  0  0  0  0  0  0  0
   -8.3900   17.5690   26.8680 C   0  0  2  0  0  0  0  0  0  0  0  0
   -8.3610   16.0810   26.8020 N   0  0  0  0  0  0  0  0  0  0  0  0
   -8.6150   14.8690   30.2500 C   0  0  0  0  0  0  0  0  0  0  0  0
   -7.8390   15.5350   25.5220 C   0  0  0  0  0  0  0  0  0  0  0  0
  -11.3740   15.6010   28.1590 C   0  0  0  0  0  0  0  0  0  0  0  0
  -11.9920   14.4390   28.9220 C   0  0  0  0  0  0  0  0  0  0  0  0
  -13.1250   14.6560   29.7350 C   0  0  0  0  0  0  0  0  0  0  0  0
  -11.4100   13.1550   28.8630 C   0  0  0  0  0  0  0  0  0  0  0  0
  -13.6660   13.5940   30.4870 C   0  0  0  0  0  0  0  0  0  0  0  0
  -11.9490   12.0940   29.6160 C   0  0  0  0  0  0  0  0  0  0  0  0
  -13.0800   12.3140   30.4270 C   0  0  0  0  0  0  0  0  0  0  0  0
   -7.1780   18.1570   27.6530 C   0  0  0  0  0  0  0  0  0  0  0  0
   -5.8570   17.8330   26.9790 C   0  0  0  0  0  0  0  0  0  0  0  0
   -4.3580   18.0730   25.0630 C   0  0  0  0  0  0  0  0  0  0  0  0
   -3.5090   17.0870   25.6030 C   0  0  0  0  0  0  0  0  0  0  0  0
   -5.5270   18.4510   25.7530 C   0  0  0  0  0  0  0  0  0  0  0  0
   -3.8240   16.4870   26.8370 C   0  0  0  0  0  0  0  0  0  0  0  0
   -4.9920   16.8620   27.5270 C   0  0  0  0  0  0  0  0  0  0  0  0
  -11.3400   18.4870   29.1180 O   0  0  0  0  0  0  0  0  0  0  0  0
   -9.7560   19.5550   27.0980 O   0  0  0  0  0  0  0  0  0  0  0  0
   -7.5780   14.2520   27.8850 O   0  0  0  0  0  0  0  0  0  0  0  0
   -8.5900   15.9190   24.2580 C   0  0  0  0  0  0  0  0  0  0  0  0
  -10.3160   14.8330   32.1190 C   0  0  0  0  0  0  0  0  0  0  0  0
  -10.8980   15.3890   33.2760 C   0  0  0  0  0  0  0  0  0  0  0  0
   -8.5270   16.4860   32.2050 C   0  0  0  0  0  0  0  0  0  0  0  0
  -10.2750   16.4910   33.9060 C   0  0  0  0  0  0  0  0  0  0  0  0
   -9.0900   17.0280   33.3740 C   0  0  0  0  0  0  0  0  0  0  0  0
   -9.9240   16.4930   21.8470 C   0  0  0  0  0  0  0  0  0  0  0  0
  -10.6090   15.8390   22.8870 C   0  0  0  0  0  0  0  0  0  0  0  0
   -8.5730   16.8650   21.9980 C   0  0  0  0  0  0  0  0  0  0  0  0
   -9.9390   15.5430   24.0900 C   0  0  0  0  0  0  0  0  0  0  0  0
   -7.9110   16.5800   23.2100 C   0  0  0  0  0  0  0  0  0  0  0  0
  -12.2140   14.8140   33.7700 C   0  0  0  0  0  0  0  0  0  0  0  0
   -7.8540   17.5460   20.8450 C   0  0  0  0  0  0  0  0  0  0  0  0
   -7.8490   16.7460   19.6800 O   0  0  0  0  0  0  0  0  0  0  0  0
  -12.6160   15.2950   35.0290 O   0  0  0  0  0  0  0  0  0  0  0  0
  1 60  1  0  0  0  0
  2 59  1  0  0  0  0
  4 53  1  0  0  0  0
  7 48  1  0  0  0  0
  8 47  1  0  0  0  0
 10 58  1  0  0  0  0
 11 51  1  0  0  0  0
 12 49  1  0  0  0  0
 13 61  1  0  0  0  0
 14 49  1  0  0  0  0
 15 56  1  0  0  0  0
 16 55  1  0  0  0  0
 17 73  1  0  0  0  0
 18 54  1  0  0  0  0
 19 48  1  0  0  0  0
 20 47  1  0  0  0  0
 21 80  1  0  0  0  0
 22 72  1  0  0  0  0
 23 64  1  0  0  0  0
 24 63  1  0  0  0  0
 25 62  1  0  0  0  0
 26 67  1  0  0  0  0
 27 71  1  0  0  0  0
 28 70  1  0  0  0  0
 29 69  1  0  0  0  0
 30 52  1  0  0  0  0
 31 77  1  0  0  0  0
 32 76  1  0  0  0  0
 33 75  1  0  0  0  0
 34 77  1  0  0  0  0
 35 79  1  0  0  0  0
 36 78  1  0  0  0  0
 37 78  1  0  0  0  0
 38 56  1  0  0  0  0
 39 47  1  0  0  0  0
 39 67  2  0  0  0  0
 39 69  1  0  0  0  0
 40  9  1  1  0  0  0
 40 41  1  0  0  0  0
 40 42  1  0  0  0  0
 40 49  1  0  0  0  0
 41 43  1  0  0  0  0
 41 47  1  0  0  0  0
 42  3  1  1  0  0  0
 42 44  1  0  0  0  0
 42 63  1  0  0  0  0
 43 46  1  0  0  0  0
 43 65  2  0  0  0  0
 44  6  1  6  0  0  0
 44 45  1  0  0  0  0
 44 64  1  0  0  0  0
 45  5  1  6  0  0  0
 45 46  1  0  0  0  0
 45 56  1  0  0  0  0
 46 48  1  0  0  0  0
 48 66  1  0  0  0  0
 49 50  1  0  0  0  0
 50 51  2  0  0  0  0
 50 52  1  0  0  0  0
 51 53  1  0  0  0  0
 52 54  2  0  0  0  0
 53 55  2  0  0  0  0
 54 55  1  0  0  0  0
 56 57  1  0  0  0  0
 57 60  2  0  0  0  0
 57 62  1  0  0  0  0
 58 59  2  0  0  0  0
 58 60  1  0  0  0  0
 59 61  1  0  0  0  0
 61 62  2  0  0  0  0
 66 75  2  0  0  0  0
 66 76  1  0  0  0  0
 67 68  1  0  0  0  0
 68 70  2  0  0  0  0
 68 77  1  0  0  0  0
 69 71  2  0  0  0  0
 70 71  1  0  0  0  0
 72 73  2  0  0  0  0
 72 74  1  0  0  0  0
 73 75  1  0  0  0  0
 74 76  2  0  0  0  0
 74 78  1  0  0  0  0
 77 80  1  0  0  0  0
 78 79  1  0  0  0  0
M  END
$$$$
